Version 4
SHEET 1 880 900
WIRE -160 -96 -160 -160
WIRE 160 -96 32 -96
WIRE 400 -96 240 -96
WIRE -704 48 -704 -112
WIRE -496 48 -496 -112
WIRE 32 64 32 -96
WIRE 80 64 32 64
WIRE 400 64 400 -96
WIRE 400 64 336 64
WIRE -160 128 -160 -16
WIRE 80 128 -160 128
WIRE 480 128 336 128
WIRE 80 192 -32 192
WIRE 576 192 336 192
WIRE 736 192 576 192
WIRE -160 224 -160 128
WIRE -704 240 -704 128
WIRE -496 240 -496 128
WIRE 736 240 736 192
WIRE 80 256 16 256
WIRE 400 256 336 256
WIRE 576 256 576 192
WIRE 400 384 400 256
WIRE 576 384 576 320
WIRE 736 384 736 320
WIRE -256 400 -320 400
WIRE -160 400 -160 304
WIRE -576 464 -656 464
WIRE -656 496 -656 464
WIRE -576 528 -608 528
WIRE -656 592 -656 560
WIRE -576 592 -656 592
WIRE -160 592 -320 592
WIRE 16 592 16 256
WIRE 16 592 -160 592
WIRE -160 656 -160 592
WIRE -608 704 -608 528
WIRE -160 752 -160 720
FLAG -496 240 0
FLAG -496 -112 SIG
FLAG -704 -112 PWR
FLAG -704 240 0
FLAG 480 128 PWR
FLAG -160 400 0
FLAG -160 -160 PWR
FLAG -32 192 SIG
FLAG 736 384 0
FLAG -608 704 0
FLAG -256 400 PWR
FLAG -160 752 0
FLAG 400 384 0
FLAG 576 384 0
SYMBOL Opamps\\LT1167 208 160 R0
SYMATTR InstName U1
SYMBOL res 144 -80 R270
WINDOW 0 32 56 VTop 2
WINDOW 3 0 56 VBottom 2
SYMATTR InstName R1
SYMATTR Value 2k
SYMBOL voltage -496 32 R0
WINDOW 123 0 0 Left 2
WINDOW 39 0 0 Left 2
SYMATTR InstName V1
SYMATTR Value SINE(2.5 0.14 1)
SYMBOL voltage -704 32 R0
WINDOW 123 0 0 Left 2
WINDOW 39 0 0 Left 2
SYMATTR InstName V2
SYMATTR Value 15
SYMBOL res -176 -112 R0
SYMATTR InstName R2
SYMATTR Value 5k
SYMBOL res -176 208 R0
SYMATTR InstName R3
SYMATTR Value 1k
SYMBOL res 720 224 R0
SYMATTR InstName R4
SYMATTR Value 1k
SYMBOL PowerProducts\\LTC1144 -448 496 R0
SYMATTR InstName U2
SYMBOL cap -672 496 R0
SYMATTR InstName C1
SYMATTR Value 10u
SYMBOL cap -176 656 R0
SYMATTR InstName C2
SYMATTR Value 10u
SYMBOL zener 592 320 R180
WINDOW 0 24 64 Left 2
WINDOW 3 24 0 Left 2
SYMATTR InstName D2
SYMATTR Value EDZV6_2B
TEXT -592 -280 Left 2 !.tran 1
