* C:\Users\torica\git\LTs_repo\LPF_RC.asc
R1 SIG OUT {R}
C1 OUT 0 {C}
V1 SIG 0 SINE(1 1 1k)
.param R=300
.param C=10u
.tran 100m
.backanno
.end
