Version 4
SHEET 1 880 680
WIRE -160 -128 -288 -128
WIRE 16 -128 -80 -128
WIRE 144 -128 16 -128
WIRE -720 -48 -720 -128
WIRE 16 -32 16 -128
WIRE -720 160 -720 32
WIRE 16 160 16 32
FLAG -288 -128 SIG
FLAG 16 160 0
FLAG -720 -128 SIG
FLAG -720 160 0
FLAG 144 -128 OUT
SYMBOL res -176 -112 R270
WINDOW 0 32 56 VTop 2
WINDOW 3 0 56 VBottom 2
SYMATTR InstName R1
SYMATTR Value {R}
SYMBOL cap 0 -32 R0
SYMATTR InstName C1
SYMATTR Value {C}
SYMBOL voltage -720 -64 R0
WINDOW 123 0 0 Left 2
WINDOW 39 0 0 Left 2
SYMATTR InstName V1
SYMATTR Value SINE(1 1 {f_sig})
TEXT -728 -336 Left 2 !.step param f_sig 100 2k 200
TEXT -728 -296 Left 2 !.param C=10u R=300
TEXT -728 -256 Left 2 !.tran 0 105m 100m
